
** Library name: ADETutorial
** Cell name: myInverter
** View name: schematic
.subckt myInverter a z
