

.PROBE TRAN
+    V(in)
+    V(out)
.TRAN 100e-15 100e-12 START=0.0

.TEMP 25.0
.OPTION
+    ARTIST=2
+    INGOLD=2
+    PARHIER=LOCAL
+    PSF=2
